
Version,
  9.3;                                    !- Version Identifier

Timestep,
  12;                                     !- Number of Timesteps per Hour

LifeCycleCost:Parameters,
  Life Cycle Cost Parameters,             !- Name
  EndOfYear,                              !- Discounting Convention
  ConstantDollar,                         !- Inflation Approach
  0.03,                                   !- Real Discount Rate
  ,                                       !- Nominal Discount Rate
  ,                                       !- Inflation
  ,                                       !- Base Date Month
  2011,                                   !- Base Date Year
  ,                                       !- Service Date Month
  2011,                                   !- Service Date Year
  25,                                     !- Length of Study Period in Years
  ,                                       !- Tax rate
  None;                                   !- Depreciation Method

LifeCycleCost:UsePriceEscalation,
  U.S. Avg  Commercial-Electricity,       !- Name
  Electricity,                            !- Resource
  2011,                                   !- Escalation Start Year
  January,                                !- Escalation Start Month
  0.9838,                                 !- Year Escalation 1
  0.9730,                                 !- Year Escalation 2
  0.9632,                                 !- Year Escalation 3
  0.9611,                                 !- Year Escalation 4
  0.9571,                                 !- Year Escalation 5
  0.9553,                                 !- Year Escalation 6
  0.9539,                                 !- Year Escalation 7
  0.9521,                                 !- Year Escalation 8
  0.9546,                                 !- Year Escalation 9
  0.9550,                                 !- Year Escalation 10
  0.9553,                                 !- Year Escalation 11
  0.9564,                                 !- Year Escalation 12
  0.9575,                                 !- Year Escalation 13
  0.9596,                                 !- Year Escalation 14
  0.9618,                                 !- Year Escalation 15
  0.9614,                                 !- Year Escalation 16
  0.9618,                                 !- Year Escalation 17
  0.9618,                                 !- Year Escalation 18
  0.9593,                                 !- Year Escalation 19
  0.9589,                                 !- Year Escalation 20
  0.9607,                                 !- Year Escalation 21
  0.9625,                                 !- Year Escalation 22
  0.9650,                                 !- Year Escalation 23
  0.9708,                                 !- Year Escalation 24
  0.9751,                                 !- Year Escalation 25
  0.9762,                                 !- Year Escalation 26
  0.9766,                                 !- Year Escalation 27
  0.9766,                                 !- Year Escalation 28
  0.9769,                                 !- Year Escalation 29
  0.9773;                                 !- Year Escalation 30

LifeCycleCost:UsePriceEscalation,
  U.S. Avg  Commercial-Distillate Oil,    !- Name
  FuelOilNo1,                             !- Resource
  2011,                                   !- Escalation Start Year
  January,                                !- Escalation Start Month
  0.9714,                                 !- Year Escalation 1
  0.9730,                                 !- Year Escalation 2
  0.9942,                                 !- Year Escalation 3
  1.0164,                                 !- Year Escalation 4
  1.0541,                                 !- Year Escalation 5
  1.0928,                                 !- Year Escalation 6
  1.1267,                                 !- Year Escalation 7
  1.1580,                                 !- Year Escalation 8
  1.1792,                                 !- Year Escalation 9
  1.1967,                                 !- Year Escalation 10
  1.2200,                                 !- Year Escalation 11
  1.2333,                                 !- Year Escalation 12
  1.2566,                                 !- Year Escalation 13
  1.2709,                                 !- Year Escalation 14
  1.2826,                                 !- Year Escalation 15
  1.2985,                                 !- Year Escalation 16
  1.3102,                                 !- Year Escalation 17
  1.3250,                                 !- Year Escalation 18
  1.3261,                                 !- Year Escalation 19
  1.3282,                                 !- Year Escalation 20
  1.3324,                                 !- Year Escalation 21
  1.3356,                                 !- Year Escalation 22
  1.3431,                                 !- Year Escalation 23
  1.3510,                                 !- Year Escalation 24
  1.3568,                                 !- Year Escalation 25
  1.3606,                                 !- Year Escalation 26
  1.3637,                                 !- Year Escalation 27
  1.3674,                                 !- Year Escalation 28
  1.3706,                                 !- Year Escalation 29
  1.3743;                                 !- Year Escalation 30

LifeCycleCost:UsePriceEscalation,
  U.S. Avg  Commercial-Residual Oil,      !- Name
  FuelOilNo2,                             !- Resource
  2011,                                   !- Escalation Start Year
  January,                                !- Escalation Start Month
  0.8469,                                 !- Year Escalation 1
  0.8257,                                 !- Year Escalation 2
  0.8681,                                 !- Year Escalation 3
  0.8988,                                 !- Year Escalation 4
  0.9289,                                 !- Year Escalation 5
  0.9604,                                 !- Year Escalation 6
  0.9897,                                 !- Year Escalation 7
  1.0075,                                 !- Year Escalation 8
  1.0314,                                 !- Year Escalation 9
  1.0554,                                 !- Year Escalation 10
  1.0861,                                 !- Year Escalation 11
  1.1278,                                 !- Year Escalation 12
  1.1497,                                 !- Year Escalation 13
  1.1620,                                 !- Year Escalation 14
  1.1743,                                 !- Year Escalation 15
  1.1852,                                 !- Year Escalation 16
  1.1948,                                 !- Year Escalation 17
  1.2037,                                 !- Year Escalation 18
  1.2071,                                 !- Year Escalation 19
  1.2119,                                 !- Year Escalation 20
  1.2139,                                 !- Year Escalation 21
  1.2194,                                 !- Year Escalation 22
  1.2276,                                 !- Year Escalation 23
  1.2365,                                 !- Year Escalation 24
  1.2420,                                 !- Year Escalation 25
  1.2461,                                 !- Year Escalation 26
  1.2509,                                 !- Year Escalation 27
  1.2550,                                 !- Year Escalation 28
  1.2591,                                 !- Year Escalation 29
  1.2638;                                 !- Year Escalation 30

LifeCycleCost:UsePriceEscalation,
  U.S. Avg  Commercial-Natural gas,       !- Name
  NaturalGas,                             !- Resource
  2011,                                   !- Escalation Start Year
  January,                                !- Escalation Start Month
  0.9823,                                 !- Year Escalation 1
  0.9557,                                 !- Year Escalation 2
  0.9279,                                 !- Year Escalation 3
  0.9257,                                 !- Year Escalation 4
  0.9346,                                 !- Year Escalation 5
  0.9412,                                 !- Year Escalation 6
  0.9512,                                 !- Year Escalation 7
  0.9645,                                 !- Year Escalation 8
  0.9856,                                 !- Year Escalation 9
  1.0067,                                 !- Year Escalation 10
  1.0222,                                 !- Year Escalation 11
  1.0410,                                 !- Year Escalation 12
  1.0610,                                 !- Year Escalation 13
  1.0787,                                 !- Year Escalation 14
  1.0942,                                 !- Year Escalation 15
  1.1098,                                 !- Year Escalation 16
  1.1220,                                 !- Year Escalation 17
  1.1308,                                 !- Year Escalation 18
  1.1386,                                 !- Year Escalation 19
  1.1486,                                 !- Year Escalation 20
  1.1619,                                 !- Year Escalation 21
  1.1763,                                 !- Year Escalation 22
  1.1918,                                 !- Year Escalation 23
  1.2118,                                 !- Year Escalation 24
  1.2284,                                 !- Year Escalation 25
  1.2439,                                 !- Year Escalation 26
  1.2605,                                 !- Year Escalation 27
  1.2772,                                 !- Year Escalation 28
  1.2938,                                 !- Year Escalation 29
  1.3115;                                 !- Year Escalation 30

LifeCycleCost:UsePriceEscalation,
  U.S. Avg  Commercial-Coal,              !- Name
  Coal,                                   !- Resource
  2011,                                   !- Escalation Start Year
  January,                                !- Escalation Start Month
  0.9970,                                 !- Year Escalation 1
  1.0089,                                 !- Year Escalation 2
  1.0089,                                 !- Year Escalation 3
  0.9941,                                 !- Year Escalation 4
  0.9941,                                 !- Year Escalation 5
  1.0000,                                 !- Year Escalation 6
  1.0030,                                 !- Year Escalation 7
  1.0059,                                 !- Year Escalation 8
  1.0089,                                 !- Year Escalation 9
  1.0119,                                 !- Year Escalation 10
  1.0148,                                 !- Year Escalation 11
  1.0178,                                 !- Year Escalation 12
  1.0208,                                 !- Year Escalation 13
  1.0267,                                 !- Year Escalation 14
  1.0297,                                 !- Year Escalation 15
  1.0356,                                 !- Year Escalation 16
  1.0415,                                 !- Year Escalation 17
  1.0534,                                 !- Year Escalation 18
  1.0564,                                 !- Year Escalation 19
  1.0593,                                 !- Year Escalation 20
  1.0653,                                 !- Year Escalation 21
  1.0712,                                 !- Year Escalation 22
  1.0742,                                 !- Year Escalation 23
  1.0801,                                 !- Year Escalation 24
  1.0831,                                 !- Year Escalation 25
  1.0831,                                 !- Year Escalation 26
  1.0861,                                 !- Year Escalation 27
  1.0890,                                 !- Year Escalation 28
  1.0920,                                 !- Year Escalation 29
  1.0950;                                 !- Year Escalation 30

Building,
  Building 1,                             !- Name
  90,                                     !- North Axis {deg}
  Suburbs,                                !- Terrain
  ,                                       !- Loads Convergence Tolerance Value {W}
  ,                                       !- Temperature Convergence Tolerance Value {deltaC}
  ,                                       !- Solar Distribution
  ,                                       !- Maximum Number of Warmup Days
  ;                                       !- Minimum Number of Warmup Days

Shading:Building:Detailed,
  Surface 25 - res eaves,                 !- Name
  ,                                       !- Transmittance Schedule Name
  ,                                       !- Number of Vertices
  -0.6096, 10.776307345283, 5.1816,       !- X,Y,Z Vertex 1 {m}
  -0.6096, 5.38815367264149, 7.87567683632075, !- X,Y,Z Vertex 2 {m}
  0, 5.38815367264149, 7.87567683632075,  !- X,Y,Z Vertex 3 {m}
  0, 10.776307345283, 5.1816;             !- X,Y,Z Vertex 4 {m}

Shading:Building:Detailed,
  Surface 25 - res eaves 1,               !- Name
  ,                                       !- Transmittance Schedule Name
  ,                                       !- Number of Vertices
  20.0069532215094, 5.38815367264149, 7.87567683632075, !- X,Y,Z Vertex 1 {m}
  20.0069532215094, 10.776307345283, 5.1816, !- X,Y,Z Vertex 2 {m}
  19.3973532215094, 10.776307345283, 5.1816, !- X,Y,Z Vertex 3 {m}
  19.3973532215094, 5.38815367264149, 7.87567683632075; !- X,Y,Z Vertex 4 {m}

Shading:Building:Detailed,
  Surface 25 - res eaves 2,               !- Name
  ,                                       !- Transmittance Schedule Name
  ,                                       !- Number of Vertices
  19.3973532215094, 11.385907345283, 4.8768, !- X,Y,Z Vertex 1 {m}
  0, 11.385907345283, 4.8768,             !- X,Y,Z Vertex 2 {m}
  0, 10.776307345283, 5.1816,             !- X,Y,Z Vertex 3 {m}
  19.3973532215094, 10.776307345283, 5.1816; !- X,Y,Z Vertex 4 {m}

Shading:Building:Detailed,
  Surface 39 - res eaves,                 !- Name
  ,                                       !- Transmittance Schedule Name
  ,                                       !- Number of Vertices
  11.4725532215094, 0, 4.8768,            !- X,Y,Z Vertex 1 {m}
  11.4725532215094, -3.6576, 4.8768,      !- X,Y,Z Vertex 2 {m}
  12.0821532215094, -3.6576, 5.1816,      !- X,Y,Z Vertex 3 {m}
  12.0821532215094, 0, 5.1816;            !- X,Y,Z Vertex 4 {m}

Shading:Building:Detailed,
  Surface 39 - res eaves 1,               !- Name
  ,                                       !- Transmittance Schedule Name
  ,                                       !- Number of Vertices
  12.0821532215094, -4.2672, 5.1816,      !- X,Y,Z Vertex 1 {m}
  15.7397532215094, -4.2672, 7.0104,      !- X,Y,Z Vertex 2 {m}
  15.7397532215094, -3.6576, 7.0104,      !- X,Y,Z Vertex 3 {m}
  12.0821532215094, -3.6576, 5.1816;      !- X,Y,Z Vertex 4 {m}

Shading:Building:Detailed,
  Surface 40 - res eaves,                 !- Name
  ,                                       !- Transmittance Schedule Name
  ,                                       !- Number of Vertices
  20.0069532215094, -3.6576, 4.8768,      !- X,Y,Z Vertex 1 {m}
  20.0069532215094, 0, 4.8768,            !- X,Y,Z Vertex 2 {m}
  19.3973532215094, 0, 5.1816,            !- X,Y,Z Vertex 3 {m}
  19.3973532215094, -3.6576, 5.1816;      !- X,Y,Z Vertex 4 {m}

Shading:Building:Detailed,
  Surface 40 - res eaves 1,               !- Name
  ,                                       !- Transmittance Schedule Name
  ,                                       !- Number of Vertices
  15.7397532215094, -4.2672, 7.0104,      !- X,Y,Z Vertex 1 {m}
  19.3973532215094, -4.2672, 5.1816,      !- X,Y,Z Vertex 2 {m}
  19.3973532215094, -3.6576, 5.1816,      !- X,Y,Z Vertex 3 {m}
  15.7397532215094, -3.6576, 7.0104;      !- X,Y,Z Vertex 4 {m}

Shading:Building:Detailed,
  Surface 43 - res eaves,                 !- Name
  ,                                       !- Transmittance Schedule Name
  ,                                       !- Number of Vertices
  -0.6096, 5.38815367264149, 7.87567683632075, !- X,Y,Z Vertex 1 {m}
  -0.6096, -2.22044604925031e-16, 5.1816, !- X,Y,Z Vertex 2 {m}
  0, -2.22044604925031e-16, 5.1816,       !- X,Y,Z Vertex 3 {m}
  0, 5.38815367264149, 7.87567683632075;  !- X,Y,Z Vertex 4 {m}

Shading:Building:Detailed,
  Surface 43 - res eaves 1,               !- Name
  ,                                       !- Transmittance Schedule Name
  ,                                       !- Number of Vertices
  0, -0.6096, 4.8768,                     !- X,Y,Z Vertex 1 {m}
  12.0821532215094, -0.6096, 4.8768,      !- X,Y,Z Vertex 2 {m}
  12.0821532215094, -2.22044604925031e-16, 5.1816, !- X,Y,Z Vertex 3 {m}
  0, -2.22044604925031e-16, 5.1816;       !- X,Y,Z Vertex 4 {m}

Shading:Building:Detailed,
  Surface 43 - res eaves 2,               !- Name
  ,                                       !- Transmittance Schedule Name
  ,                                       !- Number of Vertices
  20.0069532215094, -2.22044604925031e-16, 5.1816, !- X,Y,Z Vertex 1 {m}
  20.0069532215094, 5.38815367264149, 7.87567683632075, !- X,Y,Z Vertex 2 {m}
  19.3973532215094, 5.38815367264149, 7.87567683632075, !- X,Y,Z Vertex 3 {m}
  19.3973532215094, -2.22044604925031e-16, 5.1816; !- X,Y,Z Vertex 4 {m}

Shading:Building:Detailed,
  res neighbors left,                     !- Name
  ,                                       !- Transmittance Schedule Name
  ,                                       !- Number of Vertices
  -4.572, -3.6576, 0,                     !- X,Y,Z Vertex 1 {m}
  -4.572, -3.6576, 7.57087683632075,      !- X,Y,Z Vertex 2 {m}
  -4.572, 10.776307345283, 7.57087683632075, !- X,Y,Z Vertex 3 {m}
  -4.572, 10.776307345283, 0;             !- X,Y,Z Vertex 4 {m}

Shading:Building:Detailed,
  res neighbors right,                    !- Name
  ,                                       !- Transmittance Schedule Name
  ,                                       !- Number of Vertices
  23.9693532215094, 10.776307345283, 0,   !- X,Y,Z Vertex 1 {m}
  23.9693532215094, 10.776307345283, 7.57087683632075, !- X,Y,Z Vertex 2 {m}
  23.9693532215094, -3.6576, 7.57087683632075, !- X,Y,Z Vertex 3 {m}
  23.9693532215094, -3.6576, 0;           !- X,Y,Z Vertex 4 {m}

Zone,
  garage zone,                            !- Name
  -0,                                     !- Direction of Relative North {deg}
  0,                                      !- X Origin {m}
  0,                                      !- Y Origin {m}
  0,                                      !- Z Origin {m}
  ,                                       !- Type
  ,                                       !- Multiplier
  ,                                       !- Ceiling Height {m}
  ,                                       !- Volume {m3}
  ,                                       !- Floor Area {m2}
  ,                                       !- Zone Inside Convection Algorithm
  ;                                       !- Zone Outside Convection Algorithm

BuildingSurface:Detailed,
  Surface 1,                              !- Name
  Floor,                                  !- Surface Type
  FloorFndGrndUnfinSlab,                  !- Construction Name
  garage zone,                            !- Zone Name
  Foundation,                             !- Outside Boundary Condition
  Foundation Kiva 2,                      !- Outside Boundary Condition Object
  NoSun,                                  !- Sun Exposure
  NoWind,                                 !- Wind Exposure
  ,                                       !- View Factor to Ground
  ,                                       !- Number of Vertices
  12.0821532215094, -3.6576, 0,           !- X,Y,Z Vertex 1 {m}
  12.0821532215094, 3.6576, 0,            !- X,Y,Z Vertex 2 {m}
  19.3973532215094, 3.6576, 0,            !- X,Y,Z Vertex 3 {m}
  19.3973532215094, -3.6576, 0;           !- X,Y,Z Vertex 4 {m}

SurfaceProperty:ExposedFoundationPerimeter,
  Surface 1,                              !- Surface Name
  TotalExposedPerimeter,                  !- Exposed Perimeter Calculation Method
  18.288,                                 !- Total Exposed Perimeter {m}
  ;                                       !- Exposed Perimeter Fraction {dimensionless}

BuildingSurface:Detailed,
  Surface 2,                              !- Name
  Wall,                                   !- Surface Type
  WallIntFinInsUnfin Reversed,            !- Construction Name
  garage zone,                            !- Zone Name
  Surface,                                !- Outside Boundary Condition
  Surface 12,                             !- Outside Boundary Condition Object
  NoSun,                                  !- Sun Exposure
  NoWind,                                 !- Wind Exposure
  ,                                       !- View Factor to Ground
  ,                                       !- Number of Vertices
  12.0821532215094, 3.6576, 2.4384,       !- X,Y,Z Vertex 1 {m}
  12.0821532215094, 3.6576, 0,            !- X,Y,Z Vertex 2 {m}
  12.0821532215094, 0, 0,                 !- X,Y,Z Vertex 3 {m}
  12.0821532215094, 0, 2.4384;            !- X,Y,Z Vertex 4 {m}

BuildingSurface:Detailed,
  Surface 3,                              !- Name
  Wall,                                   !- Surface Type
  WallIntFinInsUnfin Reversed,            !- Construction Name
  garage zone,                            !- Zone Name
  Surface,                                !- Outside Boundary Condition
  Surface 11,                             !- Outside Boundary Condition Object
  NoSun,                                  !- Sun Exposure
  NoWind,                                 !- Wind Exposure
  ,                                       !- View Factor to Ground
  ,                                       !- Number of Vertices
  19.3973532215094, 3.6576, 2.4384,       !- X,Y,Z Vertex 1 {m}
  19.3973532215094, 3.6576, 0,            !- X,Y,Z Vertex 2 {m}
  12.0821532215094, 3.6576, 0,            !- X,Y,Z Vertex 3 {m}
  12.0821532215094, 3.6576, 2.4384;       !- X,Y,Z Vertex 4 {m}

BuildingSurface:Detailed,
  Surface 36,                             !- Name
  Wall,                                   !- Surface Type
  WallExtUninsUnfin,                      !- Construction Name
  garage zone,                            !- Zone Name
  Outdoors,                               !- Outside Boundary Condition
  ,                                       !- Outside Boundary Condition Object
  SunExposed,                             !- Sun Exposure
  WindExposed,                            !- Wind Exposure
  ,                                       !- View Factor to Ground
  ,                                       !- Number of Vertices
  12.0821532215094, 0, 2.4384,            !- X,Y,Z Vertex 1 {m}
  12.0821532215094, 0, 0,                 !- X,Y,Z Vertex 2 {m}
  12.0821532215094, -3.6576, 0,           !- X,Y,Z Vertex 3 {m}
  12.0821532215094, -3.6576, 2.4384;      !- X,Y,Z Vertex 4 {m}

BuildingSurface:Detailed,
  Surface 4,                              !- Name
  Wall,                                   !- Surface Type
  WallExtUninsUnfin,                      !- Construction Name
  garage zone,                            !- Zone Name
  Outdoors,                               !- Outside Boundary Condition
  ,                                       !- Outside Boundary Condition Object
  SunExposed,                             !- Sun Exposure
  WindExposed,                            !- Wind Exposure
  ,                                       !- View Factor to Ground
  ,                                       !- Number of Vertices
  19.3973532215094, -3.6576, 2.4384,      !- X,Y,Z Vertex 1 {m}
  19.3973532215094, -3.6576, 0,           !- X,Y,Z Vertex 2 {m}
  19.3973532215094, 3.6576, 0,            !- X,Y,Z Vertex 3 {m}
  19.3973532215094, 3.6576, 2.4384;       !- X,Y,Z Vertex 4 {m}

BuildingSurface:Detailed,
  Surface 5,                              !- Name
  Wall,                                   !- Surface Type
  WallExtUninsUnfin,                      !- Construction Name
  garage zone,                            !- Zone Name
  Outdoors,                               !- Outside Boundary Condition
  ,                                       !- Outside Boundary Condition Object
  SunExposed,                             !- Sun Exposure
  WindExposed,                            !- Wind Exposure
  ,                                       !- View Factor to Ground
  ,                                       !- Number of Vertices
  12.0821532215094, -3.6576, 2.4384,      !- X,Y,Z Vertex 1 {m}
  12.0821532215094, -3.6576, 0,           !- X,Y,Z Vertex 2 {m}
  19.3973532215094, -3.6576, 0,           !- X,Y,Z Vertex 3 {m}
  19.3973532215094, -3.6576, 2.4384;      !- X,Y,Z Vertex 4 {m}

BuildingSurface:Detailed,
  Surface 6,                              !- Name
  Ceiling,                                !- Surface Type
  FloorFinInsUnfin Reversed,              !- Construction Name
  garage zone,                            !- Zone Name
  Surface,                                !- Outside Boundary Condition
  Surface 15,                             !- Outside Boundary Condition Object
  NoSun,                                  !- Sun Exposure
  NoWind,                                 !- Wind Exposure
  ,                                       !- View Factor to Ground
  ,                                       !- Number of Vertices
  19.3973532215094, -3.6576, 2.4384,      !- X,Y,Z Vertex 1 {m}
  19.3973532215094, 3.6576, 2.4384,       !- X,Y,Z Vertex 2 {m}
  12.0821532215094, 3.6576, 2.4384,       !- X,Y,Z Vertex 3 {m}
  12.0821532215094, -3.6576, 2.4384;      !- X,Y,Z Vertex 4 {m}

InternalMass,
  res furniture mass garage space,        !- Name
  res furniture construction garage space, !- Construction Name
  garage zone,                            !- Zone or ZoneList Name
  5.351215104;                            !- Surface Area {m2}

Lights,
  res lighting garage garage space,       !- Name
  garage zone,                            !- Zone or ZoneList Name
  res lighting garage,                    !- Schedule Name
  LightingLevel,                          !- Design Level Calculation Method
  13.9399450215318,                       !- Lighting Level {W}
  ,                                       !- Watts per Zone Floor Area {W/m2}
  ,                                       !- Watts per Person {W/person}
  0,                                      !- Return Air Fraction
  0.6,                                    !- Fraction Radiant
  0.2,                                    !- Fraction Visible
  1,                                      !- Fraction Replaceable
  res lighting garage garage space;       !- End-Use Subcategory

ScheduleTypeLimits,
  Fractional,                             !- Name
  0,                                      !- Lower Limit Value {BasedOnField A3}
  1,                                      !- Upper Limit Value {BasedOnField A3}
  Continuous;                             !- Numeric Type

Schedule:Day:Interval,
  res lighting garage allday1,            !- Name
  Fractional,                             !- Schedule Type Limits Name
  No,                                     !- Interpolate to Timestep
  01:00,                                  !- Time 1 {hh:mm}
  0.123337953905168,                      !- Value Until Time 1
  02:00,                                  !- Time 2 {hh:mm}
  0.0740027723431009,                     !- Value Until Time 2
  04:00,                                  !- Time 3 {hh:mm}
  0.0493351815620673,                     !- Value Until Time 3
  05:00,                                  !- Time 4 {hh:mm}
  0.0548496198017922,                     !- Value Until Time 4
  06:00,                                  !- Time 5 {hh:mm}
  0.150500922049174,                      !- Value Until Time 5
  07:00,                                  !- Time 6 {hh:mm}
  0.353334619653438,                      !- Value Until Time 6
  08:00,                                  !- Time 7 {hh:mm}
  0.447135852592242,                      !- Value Until Time 7
  09:00,                                  !- Time 8 {hh:mm}
  0.475179828516091,                      !- Value Until Time 8
  10:00,                                  !- Time 9 {hh:mm}
  0.488451634454823,                      !- Value Until Time 9
  11:00,                                  !- Time 10 {hh:mm}
  0.475170970887851,                      !- Value Until Time 10
  12:00,                                  !- Time 11 {hh:mm}
  0.456770971612148,                      !- Value Until Time 11
  13:00,                                  !- Time 12 {hh:mm}
  0.443490308045177,                      !- Value Until Time 12
  14:00,                                  !- Time 13 {hh:mm}
  0.439582278006946,                      !- Value Until Time 13
  15:00,                                  !- Time 14 {hh:mm}
  0.448728814697601,                      !- Value Until Time 14
  16:00,                                  !- Time 15 {hh:mm}
  0.500370502570723,                      !- Value Until Time 15
  17:00,                                  !- Time 16 {hh:mm}
  0.626949197055279,                      !- Value Until Time 16
  18:00,                                  !- Time 17 {hh:mm}
  0.830184451355115,                      !- Value Until Time 17
  19:00,                                  !- Time 18 {hh:mm}
  0.991849597418232,                      !- Value Until Time 18
  20:00,                                  !- Time 19 {hh:mm}
  0.969504744505339,                      !- Value Until Time 19
  21:00,                                  !- Time 20 {hh:mm}
  0.784643740117406,                      !- Value Until Time 20
  22:00,                                  !- Time 21 {hh:mm}
  0.591925244985177,                      !- Value Until Time 21
  23:00,                                  !- Time 22 {hh:mm}