
OS:Version,
  {c11f78e7-ee33-4164-a5e5-3eb63d64ca4b}, !- Handle
  2.9.1;                                  !- Version Identifier

OS:Building,
  {a0df0778-ea37-46e6-951f-7b6bacc0566d}, !- Handle
  Building 1,                             !- Name
  ,                                       !- Building Sector Type
  90,                                     !- North Axis {deg}
  ,                                       !- Nominal Floor to Floor Height {m}
  ,                                       !- Space Type Name
  ,                                       !- Default Construction Set Name
  ,                                       !- Default Schedule Set Name
  2,                                      !- Standards Number of Stories
  2,                                      !- Standards Number of Above Ground Stories
  ,                                       !- Standards Template
  singlefamilydetached,                   !- Standards Building Type
  1;                                      !- Standards Number of Living Units

OS:Facility,
  {a3a367cd-bf43-42e0-88d2-84a8e1646d17}; !- Handle

OS:Site,
  {384f043f-e4b3-488d-8883-5482a572be77}, !- Handle
  Bridgeport Sikorsky Memorial_CT_USA,    !- Name
  41.18,                                  !- Latitude {deg}
  -73.15,                                 !- Longitude {deg}
  -5,                                     !- Time Zone {hr}
  3,                                      !- Elevation {m}
  Suburbs;                                !- Terrain

OS:SimulationControl,
  {d346e86b-953c-4f87-a889-574624e5917a}, !- Handle
  ,                                       !- Do Zone Sizing Calculation
  ,                                       !- Do System Sizing Calculation
  ,                                       !- Do Plant Sizing Calculation
  No;                                     !- Run Simulation for Sizing Periods

OS:Sizing:Parameters,
  {2fb393b4-eb49-4d11-a4e0-b7861cd59a2e}, !- Handle
  1.25,                                   !- Heating Sizing Factor
  1.15;                                   !- Cooling Sizing Factor

OS:Timestep,
  {6c360b8f-5e40-4d75-b58d-424d075a5cc4}, !- Handle
  12;                                     !- Number of Timesteps per Hour

OS:ShadowCalculation,
  {3d17022f-5e8e-4f24-a7a0-adf5e0501012}, !- Handle
  20,                                     !- Calculation Frequency
  200;                                    !- Maximum Figures in Shadow Overlap Calculations

OS:HeatBalanceAlgorithm,
  {0f47b821-ae09-4a50-a239-5995e09d0b23}, !- Handle
  ConductionTransferFunction,             !- Algorithm
  200;                                    !- Surface Temperature Upper Limit {C}

OS:RunPeriod,
  {de5feb79-1f7c-4902-90e8-ea3c71b06d85}, !- Handle
  Run Period 1,                           !- Name
  7,                                      !- Begin Month
  13,                                      !- Begin Day of Month
  7,                                     !- End Month
  19,                                     !- End Day of Month
  ,                                       !- Use Weather File Holidays and Special Days
  ,                                       !- Use Weather File Daylight Saving Period
  ,                                       !- Apply Weekend Holiday Rule
  ,                                       !- Use Weather File Rain Indicators
  ,                                       !- Use Weather File Snow Indicators
  ;                                       !- Number of Times Runperiod to be Repeated

OS:LifeCycleCost:Parameters,
  {b56f9914-3172-48b8-98c3-03525b52080f}, !- Handle
  ,                                       !- Analysis Type
  ,                                       !- Discounting Convention
  ,                                       !- Inflation Approach
  ,                                       !- Real Discount Rate
  ,                                       !- Nominal Discount Rate
  ,                                       !- Inflation
  ,                                       !- Base Date Month
  ,                                       !- Base Date Year
  ,                                       !- Service Date Month
  ,                                       !- Service Date Year
  ;                                       !- Length of Study Period in Years

OS:SurfaceConvectionAlgorithm:Outside,
  {62c71772-e810-482d-b142-49c00b5aa373}, !- Handle
  DOE-2;                                  !- Algorithm

OS:SurfaceConvectionAlgorithm:Inside,
  {ed2f04de-7262-4297-ade4-839b4612536a}, !- Handle
  TARP;                                   !- Algorithm

OS:ZoneCapacitanceMultiplier:ResearchSpecial,
  {beb6c12b-f271-49ba-a86a-bdd97aa723e5}, !- Handle
  ,                                       !- Temperature Capacity Multiplier
  15,                                     !- Humidity Capacity Multiplier
  ;                                       !- Carbon Dioxide Capacity Multiplier

OS:YearDescription,
  {7deeed9c-de26-4ae4-b208-38ef0c1b2a46}, !- Handle
  2007,                                   !- Calendar Year
  ,                                       !- Day of Week for Start Day
  ;                                       !- Is Leap Year

OS:WeatherFile,
  {b653365d-875b-4d91-a950-c50642fc4b27}, !- Handle
  Bridgeport Sikorsky Memorial,           !- City
  CT,                                     !- State Province Region
  USA,                                    !- Country
  TMY3,                                   !- Data Source
  725040,                                 !- WMO Number
  41.18,                                  !- Latitude {deg}
  -73.15,                                 !- Longitude {deg}
  -5,                                     !- Time Zone {hr}
  3,                                      !- Elevation {m}
  file:///weather/USA_CT_Bridgeport-Sikorsky.Mem.AP.725040_TMY3.epw, !- Url
  FC281AD4;                               !- Checksum

OS:AdditionalProperties,
  {05b81c5e-ff59-4474-9a3b-b1b6493dc992}, !- Handle
  {b653365d-875b-4d91-a950-c50642fc4b27}, !- Object Name
  EPWHeaderCity,                          !- Feature Name 1
  String,                                 !- Feature Data Type 1
  Bridgeport Sikorsky Memorial,           !- Feature Value 1
  EPWHeaderState,                         !- Feature Name 2
  String,                                 !- Feature Data Type 2
  CT,                                     !- Feature Value 2
  EPWHeaderCountry,                       !- Feature Name 3
  String,                                 !- Feature Data Type 3
  USA,                                    !- Feature Value 3
  EPWHeaderDataSource,                    !- Feature Name 4
  String,                                 !- Feature Data Type 4
  TMY3,                                   !- Feature Value 4
  EPWHeaderStation,                       !- Feature Name 5
  String,                                 !- Feature Data Type 5
  725040,                                 !- Feature Value 5
  EPWHeaderLatitude,                      !- Feature Name 6
  Double,                                 !- Feature Data Type 6
  41.18,                                  !- Feature Value 6
  EPWHeaderLongitude,                     !- Feature Name 7
  Double,                                 !- Feature Data Type 7
  -73.150000000000006,                    !- Feature Value 7
  EPWHeaderTimezone,                      !- Feature Name 8
  Double,                                 !- Feature Data Type 8
  -5,                                     !- Feature Value 8
  EPWHeaderAltitude,                      !- Feature Name 9
  Double,                                 !- Feature Data Type 9
  9.8425196850393704,                     !- Feature Value 9
  EPWHeaderLocalPressure,                 !- Feature Name 10
  Double,                                 !- Feature Data Type 10
  0.99963786086380269,                    !- Feature Value 10
  EPWHeaderRecordsPerHour,                !- Feature Name 11
  Double,                                 !- Feature Data Type 11
  1,                                      !- Feature Value 11
  EPWDataAnnualAvgDrybulb,                !- Feature Name 12
  Double,                                 !- Feature Data Type 12
  51.991958904109623,                     !- Feature Value 12
  EPWDataAnnualMinDrybulb,                !- Feature Name 13
  Double,                                 !- Feature Data Type 13
  -0.94000000000000483,                   !- Feature Value 13
  EPWDataAnnualMaxDrybulb,                !- Feature Name 14
  Double,                                 !- Feature Data Type 14
  91.039999999999992,                     !- Feature Value 14
  EPWDataCDD50F,                          !- Feature Name 15
  Double,                                 !- Feature Data Type 15
  3000.6975000000011,                     !- Feature Value 15
  EPWDataCDD65F,                          !- Feature Name 16
  Double,                                 !- Feature Data Type 16
  740.75250000000017,                     !- Feature Value 16
  EPWDataHDD50F,                          !- Feature Name 17
  Double,                                 !- Feature Data Type 17
  2273.6324999999997,                     !- Feature Value 17
  EPWDataHDD65F,                          !- Feature Name 18
  Double,                                 !- Feature Data Type 18
  5488.6874999999991,                     !- Feature Value 18
  EPWDataAnnualAvgWindspeed,              !- Feature Name 19
  Double,                                 !- Feature Data Type 19
  5.0106050228307053,                     !- Feature Value 19
  EPWDataMonthlyAvgDrybulbs,              !- Feature Name 20
  String,                                 !- Feature Data Type 20
  26.864919354838708&#4431.533392857142854&#4438.05758064516129&#4448.824500000000015&#4457.97903225806451&#4468.34950000000006&#4473.20548387096775&#4472.71338709677423&#4466.666&#4455.31725806451614&#4446.76325&#4436.379516129032254, !- Feature Value 20
  EPWDataGroundMonthlyTemps,              !- Feature Name 21
  String,                                 !- Feature Data Type 21
  43.623519760345346&#4440.07928029145427&#4439.79544488438654&#4441.4773676102547&#4448.229350113595274&#4454.949879018093554&#4460.77621840467424&#4464.4670611101763&#4464.78061847036662&#4461.77873827543391&#4456.10097396394082&#4449.586603513037176, !- Feature Value 21
  EPWDataWSF,                             !- Feature Name 22
  Double,                                 !- Feature Data Type 22
  0.58999999999999997,                    !- Feature Value 22
  EPWDataMonthlyAvgDailyHighDrybulbs,     !- Feature Name 23
  String,                                 !- Feature Data Type 23
  32.99290322580645&#4437.56071428571428&#4444.71032258064516&#4456.74400000000001&#4467.49483870967742&#4474.006&#4480.71612903225807&#4479.17161290322579&#4473.346&#4462.489677419354834&#4454.056000000000004&#4442.718709677419355, !- Feature Value 23
  EPWDataMonthlyAvgDailyLowDrybulbs,      !- Feature Name 24
  String,                                 !- Feature Data Type 24
  20.33483870967742&#4424.902857142857144&#4431.361290322580643&#4441.27&#4449.576129032258066&#4462.504&#4465.95032258064515&#4466.01999999999998&#4458.285999999999994&#4446.90516129032258&#4439.290000000000006&#4429.671612903225807, !- Feature Value 24
  EPWDesignHeatingDrybulb,                !- Feature Name 25
  Double,                                 !- Feature Data Type 25
  15.440000000000001,                     !- Feature Value 25
  EPWDesignHeatingWindspeed,              !- Feature Name 26
  Double,                                 !- Feature Data Type 26
  11.199999999999999,                     !- Feature Value 26
  EPWDesignCoolingDrybulb,                !- Feature Name 27
  Double,                                 !- Feature Data Type 27
  84.379999999999995,                     !- Feature Value 27
  EPWDesignCoolingWetbulb,                !- Feature Name 28
  Double,                                 !- Feature Data Type 28
  71.599999999999994,                     !- Feature Value 28
  EPWDesignCoolingHumidityRatio,          !- Feature Name 29
  Double,                                 !- Feature Data Type 29
  0.01358150401258665,                    !- Feature Value 29
  EPWDesignCoolingWindspeed,              !- Feature Name 30
  Double,                                 !- Feature Data Type 30
  4.7999999999999998,                     !- Feature Value 30
  EPWDesignDailyTemperatureRange,         !- Feature Name 31
  Double,                                 !- Feature Data Type 31
  13.68,                                  !- Feature Value 31
  EPWDesignDehumidDrybulb,                !- Feature Name 32
  Double,                                 !- Feature Data Type 32
  77.180000000000007,                     !- Feature Value 32
  EPWDesignDehumidHumidityRatio,          !- Feature Name 33
  Double,                                 !- Feature Data Type 33
  0.016781754781273545,                   !- Feature Value 33
  EPWDesignCoolingDirectNormal,           !- Feature Name 34
  Double,                                 !- Feature Data Type 34
  909,                                    !- Feature Value 34
  EPWDesignCoolingDiffuseHorizontal,      !- Feature Name 35
  Double,                                 !- Feature Data Type 35
  118;                                    !- Feature Value 35

OS:ClimateZones,
  {5916405a-79dc-4a06-992a-2d29065e1858}, !- Handle
  ,                                       !- Active Institution
  ,                                       !- Active Year
  ,                                       !- Climate Zone Institution Name 1
  ,                                       !- Climate Zone Document Name 1
  ,                                       !- Climate Zone Document Year 1
  ,                                       !- Climate Zone Value 1
  Building America,                       !- Climate Zone Institution Name 2
  ,                                       !- Climate Zone Document Name 2
  0,                                      !- Climate Zone Document Year 2
  Cold;                                   !- Climate Zone Value 2

OS:Site:WaterMainsTemperature,
  {7c06fecf-1f18-4b65-871f-cb7c6fdb8059}, !- Handle
  Correlation,                            !- Calculation Method
  ,                                       !- Temperature Schedule Name
  11.1066438356165,                       !- Annual Average Outdoor Air Temperature {C}
  25.7447580645161;                       !- Maximum Difference In Monthly Average Outdoor Air Temperatures {deltaC}

OS:RunPeriodControl:DaylightSavingTime,
  {8eb1c6bc-9418-4f95-a087-81903ecfb1e6}, !- Handle
  4/7,                                    !- Start Date
  10/26;                                  !- End Date

OS:Site:GroundTemperature:Deep,
  {cb950ae3-3362-4e22-a006-33bc376bb532}, !- Handle
  11.1066438356165,                       !- January Deep Ground Temperature {C}
  11.1066438356165,                       !- February Deep Ground Temperature {C}
  11.1066438356165,                       !- March Deep Ground Temperature {C}
  11.1066438356165,                       !- April Deep Ground Temperature {C}
  11.1066438356165,                       !- May Deep Ground Temperature {C}
  11.1066438356165,                       !- June Deep Ground Temperature {C}
  11.1066438356165,                       !- July Deep Ground Temperature {C}
  11.1066438356165,                       !- August Deep Ground Temperature {C}
  11.1066438356165,                       !- September Deep Ground Temperature {C}
  11.1066438356165,                       !- October Deep Ground Temperature {C}
  11.1066438356165,                       !- November Deep Ground Temperature {C}
  11.1066438356165;                       !- December Deep Ground Temperature {C}

OS:ThermalZone,
  {a176cc7e-78dd-4c5e-b4c2-a5c286964986}, !- Handle
  living zone,                            !- Name
  ,                                       !- Multiplier
  ,                                       !- Ceiling Height {m}
  ,                                       !- Volume {m3}
  ,                                       !- Floor Area {m2}
  ,                                       !- Zone Inside Convection Algorithm
  ,                                       !- Zone Outside Convection Algorithm
  ,                                       !- Zone Conditioning Equipment List Name
  {b177afb6-1207-48d8-9bc1-53afa8b5bb06}, !- Zone Air Inlet Port List
  {4ce53b4d-43c6-4651-842f-5c67926226f9}, !- Zone Air Exhaust Port List
  {a49c20c8-c1a6-4ff6-9f06-0911418c99b0}, !- Zone Air Node Name
  {0d6fcc9c-0643-457f-ada2-20b43c1b47ab}, !- Zone Return Air Port List
  ,                                       !- Primary Daylighting Control Name
  ,                                       !- Fraction of Zone Controlled by Primary Daylighting Control
  ,                                       !- Secondary Daylighting Control Name
  ,                                       !- Fraction of Zone Controlled by Secondary Daylighting Control
  ,                                       !- Illuminance Map Name
  ,                                       !- Group Rendering Name
  {e6a17f0f-94b7-4ce8-978a-0f33a7353b6c}, !- Thermostat Name
  No;                                     !- Use Ideal Air Loads

OS:Node,
  {698d7f19-164b-4b4f-ae9f-e4f75f1b767b}, !- Handle
  Node 1,                                 !- Name
  {a49c20c8-c1a6-4ff6-9f06-0911418c99b0}, !- Inlet Port
  ;                                       !- Outlet Port

OS:Connection,
  {a49c20c8-c1a6-4ff6-9f06-0911418c99b0}, !- Handle
  {b0402469-a45f-4e80-9d37-0fbe8b86fbf0}, !- Name
  {a176cc7e-78dd-4c5e-b4c2-a5c286964986}, !- Source Object
  11,                                     !- Outlet Port
  {698d7f19-164b-4b4f-ae9f-e4f75f1b767b}, !- Target Object
  2;                                      !- Inlet Port

OS:PortList,
  {b177afb6-1207-48d8-9bc1-53afa8b5bb06}, !- Handle
  {de64d861-71b3-4f88-8639-c6125c420300}, !- Name
  {a176cc7e-78dd-4c5e-b4c2-a5c286964986}, !- HVAC Component
  {efc62887-9ec7-4efb-bd7e-40f5e95636ab}, !- Port 1
  {e6bb9ece-d796-4050-84b2-b4685cceeb22}; !- Port 2

OS:PortList,
  {4ce53b4d-43c6-4651-842f-5c67926226f9}, !- Handle
  {68b757ec-9053-41ce-adb3-e584c6340e06}, !- Name
  {a176cc7e-78dd-4c5e-b4c2-a5c286964986}; !- HVAC Component

OS:PortList,
  {0d6fcc9c-0643-457f-ada2-20b43c1b47ab}, !- Handle
  {b6fdeb15-ab72-416e-bf9d-3198429453e2}, !- Name
  {a176cc7e-78dd-4c5e-b4c2-a5c286964986}, !- HVAC Component
  {979e66dd-8133-44d4-a3ed-00ba2a7ebebe}, !- Port 1
  {fa057b9d-4d23-406f-8429-c67ce007b8b5}; !- Port 2

OS:Sizing:Zone,
  {4cb0d325-4f16-4a41-8c1c-a8aae7c99b19}, !- Handle
  {a176cc7e-78dd-4c5e-b4c2-a5c286964986}, !- Zone or ZoneList Name
  SupplyAirTemperature,                   !- Zone Cooling Design Supply Air Temperature Input Method
  14,                                     !- Zone Cooling Design Supply Air Temperature {C}
  11.11,                                  !- Zone Cooling Design Supply Air Temperature Difference {deltaC}
  SupplyAirTemperature,                   !- Zone Heating Design Supply Air Temperature Input Method
  40,                                     !- Zone Heating Design Supply Air Temperature {C}
  11.11,                                  !- Zone Heating Design Supply Air Temperature Difference {deltaC}
  0.0085,                                 !- Zone Cooling Design Supply Air Humidity Ratio {kg-H2O/kg-air}
  0.008,                                  !- Zone Heating Design Supply Air Humidity Ratio {kg-H2O/kg-air}
  ,                                       !- Zone Heating Sizing Factor
  ,                                       !- Zone Cooling Sizing Factor
  DesignDay,                              !- Cooling Design Air Flow Method
  ,                                       !- Cooling Design Air Flow Rate {m3/s}
  ,                                       !- Cooling Minimum Air Flow per Zone Floor Area {m3/s-m2}
  ,                                       !- Cooling Minimum Air Flow {m3/s}
  ,                                       !- Cooling Minimum Air Flow Fraction
  DesignDay,                              !- Heating Design Air Flow Method
  ,                                       !- Heating Design Air Flow Rate {m3/s}
  ,                                       !- Heating Maximum Air Flow per Zone Floor Area {m3/s-m2}
  ,                                       !- Heating Maximum Air Flow {m3/s}
  ,                                       !- Heating Maximum Air Flow Fraction
  ,                                       !- Design Zone Air Distribution Effectiveness in Cooling Mode
  ,                                       !- Design Zone Air Distribution Effectiveness in Heating Mode
  No,                                     !- Account for Dedicated Outdoor Air System
  NeutralSupplyAir,                       !- Dedicated Outdoor Air System Control Strategy
  autosize,                               !- Dedicated Outdoor Air Low Setpoint Temperature for Design {C}
  autosize;                               !- Dedicated Outdoor Air High Setpoint Temperature for Design {C}

OS:ZoneHVAC:EquipmentList,
  {d8df04ff-d971-4ad3-8f25-74efd6eec854}, !- Handle
  Zone HVAC Equipment List 1,             !- Name
  {a176cc7e-78dd-4c5e-b4c2-a5c286964986}, !- Thermal Zone
  SequentialLoad,                         !- Load Distribution Scheme
  {88fc6a49-a6f5-464b-ae4b-25ace513d684}, !- Zone Equipment 1
  1,                                      !- Zone Equipment Cooling Sequence 1
  1,                                      !- Zone Equipment Heating or No-Load Sequence 1
  ,                                       !- Zone Equipment Sequential Cooling Fraction Schedule Name 1
  ,                                       !- Zone Equipment Sequential Heating Fraction Schedule Name 1
  {ec51b58a-8700-49e2-8cf7-2b8a70ee4a02}, !- Zone Equipment 2
  2,                                      !- Zone Equipment Cooling Sequence 2
  2,                                      !- Zone Equipment Heating or No-Load Sequence 2
  ,                                       !- Zone Equipment Sequential Cooling Fraction Schedule Name 2
  ;                                       !- Zone Equipment Sequential Heating Fraction Schedule Name 2

OS:ThermalZone,
  {a26c4386-1504-49eb-87ec-dc9e3181cb58}, !- Handle
  garage zone,                            !- Name
  ,                                       !- Multiplier
  ,                                       !- Ceiling Height {m}
  ,                                       !- Volume {m3}
  ,                                       !- Floor Area {m2}
  ,                                       !- Zone Inside Convection Algorithm
  ,                                       !- Zone Outside Convection Algorithm
  ,                                       !- Zone Conditioning Equipment List Name
  {862ef61c-10f3-49ba-abfa-8ea9b521ba45}, !- Zone Air Inlet Port List
  {09641ee8-92f7-49ae-b2b5-76ff8e1de736}, !- Zone Air Exhaust Port List
  {5c1fdb2d-40b5-45e1-b5ea-6fa3f9f0950b}, !- Zone Air Node Name
  {c0be3499-b166-4b9a-94cb-4b5d7e5434e0}, !- Zone Return Air Port List
  ,                                       !- Primary Daylighting Control Name
  ,                                       !- Fraction of Zone Controlled by Primary Daylighting Control
  ,                                       !- Secondary Daylighting Control Name
  ,                                       !- Fraction of Zone Controlled by Secondary Daylighting Control
  ,                                       !- Illuminance Map Name
  ,                                       !- Group Rendering Name
  ,                                       !- Thermostat Name
  No;                                     !- Use Ideal Air Loads

OS:Node,
  {444470f5-ad8f-4e10-ad23-512d686b4f80}, !- Handle
  Node 2,                                 !- Name
  {5c1fdb2d-40b5-45e1-b5ea-6fa3f9f0950b}, !- Inlet Port
  ;                                       !- Outlet Port

OS:Connection,
  {5c1fdb2d-40b5-45e1-b5ea-6fa3f9f0950b}, !- Handle
  {574dd655-d461-407e-8801-285f1f12bb02}, !- Name
  {a26c4386-1504-49eb-87ec-dc9e3181cb58}, !- Source Object
  11,                                     !- Outlet Port
  {444470f5-ad8f-4e10-ad23-512d686b4f80}, !- Target Object
  2;                                      !- Inlet Port

OS:PortList,
  {862ef61c-10f3-49ba-abfa-8ea9b521ba45}, !- Handle
  {528a8d95-4115-468f-a11b-c7003958c3c1}, !- Name
  {a26c4386-1504-49eb-87ec-dc9e3181cb58}; !- HVAC Component

OS:PortList,
  {09641ee8-92f7-49ae-b2b5-76ff8e1de736}, !- Handle
  {850c1d14-0f5e-4ff4-99ca-c102f84bc220}, !- Name
  {a26c4386-1504-49eb-87ec-dc9e3181cb58}; !- HVAC Component

OS:PortList,
  {c0be3499-b166-4b9a-94cb-4b5d7e5434e0}, !- Handle
  {bc1bfa3c-d28d-4f30-8751-9385fcb5c287}, !- Name
  {a26c4386-1504-49eb-87ec-dc9e3181cb58}; !- HVAC Component

OS:Sizing:Zone,
  {cd9e14d1-e507-4bdc-b0ec-32a7548ed6aa}, !- Handle
  {a26c4386-1504-49eb-87ec-dc9e3181cb58}, !- Zone or ZoneList Name
  SupplyAirTemperature,                   !- Zone Cooling Design Supply Air Temperature Input Method
  14,                                     !- Zone Cooling Design Supply Air Temperature {C}
  11.11,                                  !- Zone Cooling Design Supply Air Temperature Difference {deltaC}
  SupplyAirTemperature,                   !- Zone Heating Design Supply Air Temperature Input Method
  40,                                     !- Zone Heating Design Supply Air Temperature {C}
  11.11,                                  !- Zone Heating Design Supply Air Temperature Difference {deltaC}
  0.0085,                                 !- Zone Cooling Design Supply Air Humidity Ratio {kg-H2O/kg-air}
  0.008,                                  !- Zone Heating Design Supply Air Humidity Ratio {kg-H2O/kg-air}
  ,                                       !- Zone Heating Sizing Factor
  ,                                       !- Zone Cooling Sizing Factor
  DesignDay,                              !- Cooling Design Air Flow Method
  ,                                       !- Cooling Design Air Flow Rate {m3/s}
  ,                                       !- Cooling Minimum Air Flow per Zone Floor Area {m3/s-m2}
  ,                                       !- Cooling Minimum Air Flow {m3/s}
  ,                                       !- Cooling Minimum Air Flow Fraction
  DesignDay,                              !- Heating Design Air Flow Method
  ,                                       !- Heating Design Air Flow Rate {m3/s}
  ,                                       !- Heating Maximum Air Flow per Zone Floor Area {m3/s-m2}
  ,                                       !- Heating Maximum Air Flow {m3/s}
  ,                                       !- Heating Maximum Air Flow Fraction
  ,                                       !- Design Zone Air Distribution Effectiveness in Cooling Mode
  ,                                       !- Design Zone Air Distribution Effectiveness in Heating Mode
  No,                                     !- Account for Dedicated Outdoor Air System
  NeutralSupplyAir,                       !- Dedicated Outdoor Air System Control Strategy
  autosize,                               !- Dedicated Outdoor Air Low Setpoint Temperature for Design {C}
  autosize;                               !- Dedicated Outdoor Air High Setpoint Temperature for Design {C}

OS:ZoneHVAC:EquipmentList,
  {5e229464-7fe4-416a-b031-c42d2197c7ea}, !- Handle
  Zone HVAC Equipment List 2,             !- Name
  {a26c4386-1504-49eb-87ec-dc9e3181cb58}; !- Thermal Zone

OS:Space,
  {1d16e2e4-4820-40dc-916f-93b76253b5d4}, !- Handle
  garage space,                           !- Name
  {68ff26b5-3a19-4131-b655-224013b9c0ad}, !- Space Type Name
  ,                                       !- Default Construction Set Name
  ,                                       !- Default Schedule Set Name
  -0,                                     !- Direction of Relative North {deg}
  0,                                      !- X Origin {m}
  0,                                      !- Y Origin {m}
  0,                                      !- Z Origin {m}
  ,                                       !- Building Story Name
  {a26c4386-1504-49eb-87ec-dc9e3181cb58}; !- Thermal Zone Name

OS:Surface,
  {dd7d04e7-fab4-43ac-b606-4098a0b2e387}, !- Handle
  Surface 1,                              !- Name
  Floor,                                  !- Surface Type
  {8e9d615d-3a12-434f-b618-8023003da419}, !- Construction Name
  {1d16e2e4-4820-40dc-916f-93b76253b5d4}, !- Space Name
  Foundation,                             !- Outside Boundary Condition
  {0e758bc1-0381-4563-84d8-e773738e4787}, !- Outside Boundary Condition Object
  NoSun,                                  !- Sun Exposure
  NoWind,                                 !- Wind Exposure
  ,                                       !- View Factor to Ground
  ,                                       !- Number of Vertices
  12.0821532215094, -3.6576, 0,           !- X,Y,Z Vertex 1 {m}
  12.0821532215094, 3.6576, 0,            !- X,Y,Z Vertex 2 {m}
  19.3973532215094, 3.6576, 0,            !- X,Y,Z Vertex 3 {m}
  19.3973532215094, -3.6576, 0;           !- X,Y,Z Vertex 4 {m}

OS:Surface,
  {14ac0ce7-c474-4fb7-92d1-36fb939925c0}, !- Handle
  Surface 2,                              !- Name
  Wall,                                   !- Surface Type
  {a76296ca-9991-4942-b99f-376cab9f9591}, !- Construction Name
  {1d16e2e4-4820-40dc-916f-93b76253b5d4}, !- Space Name
  Surface,                                !- Outside Boundary Condition
  {c735f651-a95a-4760-a26c-c24492abbd25}, !- Outside Boundary Condition Object
  NoSun,                                  !- Sun Exposure
  NoWind,                                 !- Wind Exposure
  ,                                       !- View Factor to Ground
  ,                                       !- Number of Vertices